2013-05-01 00:46:04,179  INFO Gbl:53 JVM: 1.6.0_16; Sun Microsystems Inc.; mixed mode; 32-bit
2013-05-01 00:46:04,180  INFO Gbl:57 OS: Windows 7; 6.1; x86
2013-05-01 00:46:04,180  INFO Gbl:60 CPU cores: 2
2013-05-01 00:46:04,180  INFO Gbl:61 max. Memory: 694.625MB (728367104B)
2013-05-01 00:46:04,182  INFO Gbl:89 MATSim-Build: r23466 (2013-04-02 14:36:54)
2013-05-01 00:46:04,182  INFO AbstractController:71 Used Controler-Class: org.matsim.core.controler.Controler
2013-05-01 00:46:04,192  INFO AbstractController:203 Complete config dump directly after reading/getting the config file.  See later for config dump after setup.
2013-05-01 00:46:04,232  INFO AbstractController:207 

<?xml version="1.0" encoding="UTF-8"?>
<!DOCTYPE config SYSTEM "http://www.matsim.org/files/dtd/config_v1.dtd">
<config>

<!-- ====================================================================== -->

	<module name="TimeAllocationMutator" >

		<!-- Defines how many seconds a time mutation can maximally shift a time. -->
		<param name="mutationRange" value="1800.0" />
	</module>

<!-- ====================================================================== -->

	<module name="controler" >
		<param name="enableLinkToLinkRouting" value="false" />

		<!-- Specifies the file format for writing events. Currently supported: txt, xml. Multiple values can be specified separated by commas (','). -->
		<param name="eventsFileFormat" value="xml" />

		<param name="firstIteration" value="0" />
		<param name="lastIteration" value="1" />

		<!-- Defines which mobility simulation will be used. Currently supported: queueSimulation qsim JDEQSim multimodalQSim 
Depending on the chosen mobsim, you'll have to add additional config modules to configure the corresponding mobsim.
For 'qsim', add a module 'qsim' to the config.
For 'queueSimulation', add a module 'simulation' to the config. -->
		<param name="mobsim" value="qsim" />

		<param name="outputDirectory" value="./output" />

		<!-- The type of routing (least cost path) algorithm used, may have the values: Dijkstra, FastDijkstra, AStarLandmarks or FastAStarLandmarks -->
		<param name="routingAlgorithmType" value="Dijkstra" />

		<!-- An identifier for the current run which is used as prefix for output files and mentioned in output xml files etc. -->
		<param name="runId" value="run0" />

		<!-- Comma-separated list of visualizer output file formats. `transims', `googleearth', and `otfvis'. -->
		<param name="snapshotFormat" value="" />

		<!-- iterationNumber % writeEventsInterval == 0 defines in which iterations events are written to a file. `0' disables events writing completely. -->
		<param name="writeEventsInterval" value="10" />

		<!-- iterationNumber % writePlansInterval == 0 defines (hopefully) in which iterations plans are written to a file. `0' disables plans writing completely.  Some plans in early iterations are always written -->
		<param name="writePlansInterval" value="1" />

		<!-- iterationNumber % writeSnapshotsInterval == 0 defines in which iterations snapshots are written to a file. `0' disables snapshots writing completely -->
		<param name="writeSnapshotsInterval" value="10" />
	</module>

<!-- ====================================================================== -->

	<module name="counts" >

		<!-- Specifies over how many iterations the link volumes should be averaged that are used for the counts comparison. Use 1 or 0 to only use the link volumes of a single iteration. This values cannot be larger than the value specified for writeCountsInterval -->
		<param name="averageCountsOverIterations" value="5" />

		<!-- factor by which to re-scale the simulated values.  necessary when simulation runs with something different from 100%.  needs to be adapted manually -->
		<param name="countsScaleFactor" value="1.0" />

		<!-- distance to distanceFilterCenterNode to include counting stations. The unit of distance is the Euclidean distance implied by the coordinate system -->
		<param name="distanceFilter" value="12000.0" />

		<!-- node id for center node of distance filter -->
		<param name="distanceFilterCenterNode" value="2531" />

		<!-- input file name to counts package -->
		<param name="inputCountsFile" value="null" />

		<!-- possible values: `html', `kml', `txt', `all' -->
		<param name="outputformat" value="all" />

		<!-- Specifies how often the counts comparison should be calculated and written. -->
		<param name="writeCountsInterval" value="10" />
	</module>

<!-- ====================================================================== -->

	<module name="facilities" >
		<param name="inputFacilitiesFile" value="./input/facilities.xml" />
	</module>

<!-- ====================================================================== -->

	<module name="global" >
		<param name="coordinateSystem" value="CH1903_LV03" />
		<param name="numberOfThreads" value="4" />
		<param name="randomSeed" value="5399998864266990000" />
	</module>

<!-- ====================================================================== -->

	<module name="households" >
		<param name="inputFile" value="null" />
	</module>

<!-- ====================================================================== -->

	<module name="linkStats" >

		<!-- Specifies over how many iterations the link volumes should be averaged that are used for the link statistics. Use 1 or 0 to only use the link volumes of a single iteration. This values cannot be larger than the value specified for writeLinkStatsInterval -->
		<param name="averageLinkStatsOverIterations" value="5" />

		<!-- Specifies how often the link stats should be calculated and written. Use 0 to disable the generation of link stats. -->
		<param name="writeLinkStatsInterval" value="10" />
	</module>

<!-- ====================================================================== -->

	<module name="locationchoice" >
		<param name="algorithm" value="random" />
		<param name="analysisBinSize" value="20000.0" />
		<param name="analysisBoundary" value="200000.0" />
		<param name="centerNode" value="null" />
		<param name="destinationSamplePercent" value="100.0" />
		<param name="epsilonDistribution" value="gumbel" />
		<param name="epsilonScaleFactors" value="null" />
		<param name="fAttributesFileName" value="null" />
		<param name="fkValuesFile" value="null" />
		<param name="flexible_types" value="null" />
		<param name="idExclusion" value="2147483647" />
		<param name="maxDCScoreFile" value="null" />
		<param name="maxDistanceDCScore" value="-1.0" />
		<param name="maxRecursions" value="1" />
		<param name="pBetasFileName" value="null" />
		<param name="pkValuesFile" value="null" />
		<param name="planSelector" value="SelectExpBeta" />
		<param name="probChoiceSetSize" value="10" />
		<param name="radius" value="null" />
		<param name="randomSeed" value="221177" />
		<param name="recursionTravelSpeed" value="8.5" />
		<param name="recursionTravelSpeedChange" value="0.1" />
		<param name="restraintFcnExp" value="0.0" />
		<param name="restraintFcnFactor" value="0.0" />
		<param name="scaleFactor" value="1" />
		<param name="tt_approximationLevel" value="0" />
	</module>

<!-- ====================================================================== -->

	<module name="multimodal" >

		<!-- Use this, if your network is not multi modal. Links with free speeds that are lower than the specified cutoff value will be usable for walk and bike trips. -->
		<param name="createMultiModalNetwork" value="false" />

		<!-- Only used, if createMultiModalNetwork is enabled (set value in m/s). -->
		<param name="cuttoffValueForNonCarModes" value="22.22222222222222" />

		<param name="dropNonCarRoutes" value="false" />
		<param name="multiModalSimulationEnabled" value="false" />

		<!-- Use number of threads > 1 for parallel version using the specified number of threads. -->
		<param name="numberOfThreads" value="1" />

		<param name="simulatedModes" value="pt,walk,ride,bike" />
	</module>

<!-- ====================================================================== -->

	<module name="network" >
		<param name="inputChangeEventsFile" value="null" />
		<param name="inputNetworkFile" value="./input/network.xml" />
		<param name="laneDefinitionsFile" value="null" />
		<param name="timeVariantNetwork" value="false" />
	</module>

<!-- ====================================================================== -->

	<module name="otfvis" >

		<!-- The (initial) size of the agents.  Only a range of numbers is allowed, otherwise otfvis aborts rather ungracefully, or displays no agents at all. -->
		<param name="agentSize" value="120.0" />

		<!-- coloring scheme for otfvis.  Currently (2012) allowed values: standard bvg bvg2 byId gtfs -->
		<param name="coloringScheme" value="standard" />

		<!-- If non-moving items (e.g. agents at activities, at bus stops, etc.) should be showed.  May affect all non-moving items. -->
		<param name="drawNonMovingItems" value="false" />

		<param name="drawTransitFacilities" value="true" />
		<param name="drawTransitFacilityIds" value="true" />
		<param name="leftMouseFunc" value="Zoom" />

		<!-- The (initial) width of the links of the network. Use positive floating point values. -->
		<param name="linkWidth" value="30.0" />

		<!-- Link width is proportional to `numberOfLanes' or to `capacity'. -->
		<param name="linkwidthIsProportionalTo" value="numberOfLanes" />

		<!-- URL to get WMS tiles from. For a local GeoServer instance, use http://localhost:8080/geoserver/wms?service=WMS& -->
		<param name="mapBaseURL" value="" />

		<!-- The WMS layer to display. For GeoServer and a layer called clipped in workspace mz, use mz:clipped -->
		<param name="mapLayer" value="" />

		<!-- Render everything on top of map tiles. Default: From tiles.openstreetmap.org -->
		<param name="mapOverlayMode" value="false" />

		<param name="middleMouseFunc" value="Pan" />

		<!-- Shortens a link's start and end point in the visualization. -->
		<param name="nodeOffset" value="0.0" />

		<param name="rightMouseFunc" value="Select" />
		<param name="showTeleportation" value="false" />
	</module>

<!-- ====================================================================== -->

	<module name="parallelEventHandling" >

		<!-- estimated number of events during mobsim run, useful for configuration -->
		<param name="estimatedNumberOfEvents" value="null" />

		<!-- number of threads for parallel events handler.  0 or null means parallel events handler is disabled -->
		<param name="numberOfThreads" value="null" />
	</module>

<!-- ====================================================================== -->

	<module name="planCalcScore" >

		<!-- new_score = (1-learningRate)*old_score + learningRate * score_from_mobsim.  learning rates close to zero emulate score averaging, but slow down initial convergence -->
		<param name="learningRate" value="1.0" />

		<!-- logit model scale parameter. default: 2.  Has name and default value for historical reasons (see Bryan Raney's phd thesis).  Should be in strategyConfigGroup. -->
		<param name="BrainExpBeta" value="2.0" />

		<param name="PathSizeLogitBeta" value="1.0" />

		<!-- [utils/hr] utility for arriving late (i.e. after the latest start time).  normally negative -->
		<param name="lateArrival" value="-18.0" />

		<!-- [utils/hr] utility for departing early (i.e. before the earliest end time).  Probably implemented correctly, but not tested. -->
		<param name="earlyDeparture" value="0.0" />

		<!-- [utils/hr] marginal utility of doing an activity.  normally positive.  also the opportunity cost of time if agent is doing nothing. -->
		<param name="performing" value="6.0" />

		<!-- [utils/hr] additional marginal utility of traveling by car.  normally negative.  this comes on top of the opportunity cost of time -->
		<param name="traveling" value="-6.0" />

		<!-- [utils/hr] additional marginal utility offset of traveling by pt.  normally negative.  this comes on top of the opportunity cost of time -->
		<param name="travelingPt" value="-6.0" />

		<!-- [utils/hr] additional marginal utility offset of traveling by foot.  normally negative.  this comes on top of the opportunity cost of time.  also see marginalUtlOfDistanceWalk -->
		<param name="travelingWalk" value="-6.0" />

		<param name="travelingOther" value="-6.0" />
		<param name="travelingBike" value="-6.0" />

		<!-- [utils/hr] utility offset for waiting.  this comes on top of the opportunity cost of time.  Probably implemented correctly, but not tested. -->
		<param name="waiting" value="0.0" />

		<!-- [utils/hr] utility offset for waiting for a pt vehicle.  this comes on top of the opportunity cost of time. Default: if not set explicitly, it is equal to traveling_pt!!! -->
		<param name="waitingPt" value="-6.0" />

		<!-- [utils/m] utility of walking per m, normally negative.  this is on top of the time (dis)utility. -->
		<param name="marginalUtlOfDistanceWalk" value="0.0" />

		<param name="marginalUtlOfDistanceOther" value="0.0" />

		<!-- [utils/unit_of_money] conversion of money (e.g. toll, distance cost) into utils -->
		<param name="marginalUtilityOfMoney" value="1.0" />

		<!-- [unit_of_money/m] conversion of car distance into money. Probably needs to be negative to work. -->
		<param name="monetaryDistanceCostRateCar" value="0.0" />

		<!-- [unit_of_money/m] conversion of pt distance into money. Probably needs to be negative to work. -->
		<param name="monetaryDistanceCostRatePt" value="0.0" />

		<!-- [utils] utility of switching a line (= transfer penalty).  Normally negative -->
		<param name="utilityOfLineSwitch" value="-1.0" />

		<!-- [utils] alternative-specific constant for car.  no guarantee that this is used anywhere. default=0 to be backwards compatible for the time being -->
		<param name="constantCar" value="0.0" />

		<!-- [utils] alternative-specific constant for walk.  no guarantee that this is used anywhere. default=0 to be backwards compatible for the time being -->
		<param name="constantWalk" value="0.0" />

		<param name="constantOther" value="0.0" />

		<!-- [utils] alternative-specific constant for bike.  no guarantee that this is used anywhere. default=0 to be backwards compatible for the time being -->
		<param name="constantBike" value="0.0" />

		<!-- [utils] alternative-specific constant for pt.  no guarantee that this is used anywhere. default=0 to be backwards compatible for the time being -->
		<param name="constantPt" value="0.0" />

		<!-- write a plans file in each iteration directory which contains what each agent actually did, and the score it received. -->
		<param name="writeExperiencedPlans" value="false" />

		<!--  ============================  -->
		<param name="activityType_0" value="h0.5" />

		<param name="activityPriority_0" value="1.0" />
		<param name="activityTypicalDuration_0" value="00:30:00" />
		<param name="activityMinimalDuration_0" value="undefined" />
		<param name="activityOpeningTime_0" value="undefined" />
		<param name="activityLatestStartTime_0" value="undefined" />
		<param name="activityEarliestEndTime_0" value="undefined" />
		<param name="activityClosingTime_0" value="undefined" />

		<!--  ============================  -->
		<param name="activityType_1" value="h1" />

		<param name="activityPriority_1" value="1.0" />
		<param name="activityTypicalDuration_1" value="01:00:00" />
		<param name="activityMinimalDuration_1" value="undefined" />
		<param name="activityOpeningTime_1" value="undefined" />
		<param name="activityLatestStartTime_1" value="undefined" />
		<param name="activityEarliestEndTime_1" value="undefined" />
		<param name="activityClosingTime_1" value="undefined" />

		<!--  ============================  -->
		<param name="activityType_2" value="h10" />

		<param name="activityPriority_2" value="1.0" />
		<param name="activityTypicalDuration_2" value="10:00:00" />
		<param name="activityMinimalDuration_2" value="undefined" />
		<param name="activityOpeningTime_2" value="undefined" />
		<param name="activityLatestStartTime_2" value="undefined" />
		<param name="activityEarliestEndTime_2" value="undefined" />
		<param name="activityClosingTime_2" value="undefined" />

		<!--  ============================  -->
		<param name="activityType_3" value="s12" />

		<param name="activityPriority_3" value="1.0" />
		<param name="activityTypicalDuration_3" value="12:00:00" />
		<param name="activityMinimalDuration_3" value="undefined" />
		<param name="activityOpeningTime_3" value="undefined" />
		<param name="activityLatestStartTime_3" value="undefined" />
		<param name="activityEarliestEndTime_3" value="undefined" />
		<param name="activityClosingTime_3" value="undefined" />

		<!--  ============================  -->
		<param name="activityType_4" value="tta" />

		<param name="activityPriority_4" value="1.0" />
		<param name="activityTypicalDuration_4" value="12:00:00" />
		<param name="activityMinimalDuration_4" value="undefined" />
		<param name="activityOpeningTime_4" value="undefined" />
		<param name="activityLatestStartTime_4" value="undefined" />
		<param name="activityEarliestEndTime_4" value="undefined" />
		<param name="activityClosingTime_4" value="undefined" />

		<!--  ============================  -->
		<param name="activityType_5" value="h11" />

		<param name="activityPriority_5" value="1.0" />
		<param name="activityTypicalDuration_5" value="11:00:00" />
		<param name="activityMinimalDuration_5" value="undefined" />
		<param name="activityOpeningTime_5" value="undefined" />
		<param name="activityLatestStartTime_5" value="undefined" />
		<param name="activityEarliestEndTime_5" value="undefined" />
		<param name="activityClosingTime_5" value="undefined" />

		<!--  ============================  -->
		<param name="activityType_6" value="h12" />

		<param name="activityPriority_6" value="1.0" />
		<param name="activityTypicalDuration_6" value="12:00:00" />
		<param name="activityMinimalDuration_6" value="undefined" />
		<param name="activityOpeningTime_6" value="undefined" />
		<param name="activityLatestStartTime_6" value="undefined" />
		<param name="activityEarliestEndTime_6" value="undefined" />
		<param name="activityClosingTime_6" value="undefined" />

		<!--  ============================  -->
		<param name="activityType_7" value="h13" />

		<param name="activityPriority_7" value="1.0" />
		<param name="activityTypicalDuration_7" value="13:00:00" />
		<param name="activityMinimalDuration_7" value="undefined" />
		<param name="activityOpeningTime_7" value="undefined" />
		<param name="activityLatestStartTime_7" value="undefined" />
		<param name="activityEarliestEndTime_7" value="undefined" />
		<param name="activityClosingTime_7" value="undefined" />

		<!--  ============================  -->
		<param name="activityType_8" value="h14" />

		<param name="activityPriority_8" value="1.0" />
		<param name="activityTypicalDuration_8" value="14:00:00" />
		<param name="activityMinimalDuration_8" value="undefined" />
		<param name="activityOpeningTime_8" value="undefined" />
		<param name="activityLatestStartTime_8" value="undefined" />
		<param name="activityEarliestEndTime_8" value="undefined" />
		<param name="activityClosingTime_8" value="undefined" />

		<!--  ============================  -->
		<param name="activityType_9" value="h15" />

		<param name="activityPriority_9" value="1.0" />
		<param name="activityTypicalDuration_9" value="15:00:00" />
		<param name="activityMinimalDuration_9" value="undefined" />
		<param name="activityOpeningTime_9" value="undefined" />
		<param name="activityLatestStartTime_9" value="undefined" />
		<param name="activityEarliestEndTime_9" value="undefined" />
		<param name="activityClosingTime_9" value="undefined" />

		<!--  ============================  -->
		<param name="activityType_10" value="h16" />

		<param name="activityPriority_10" value="1.0" />
		<param name="activityTypicalDuration_10" value="16:00:00" />
		<param name="activityMinimalDuration_10" value="undefined" />
		<param name="activityOpeningTime_10" value="undefined" />
		<param name="activityLatestStartTime_10" value="undefined" />
		<param name="activityEarliestEndTime_10" value="undefined" />
		<param name="activityClosingTime_10" value="undefined" />

		<!--  ============================  -->
		<param name="activityType_11" value="h17" />

		<param name="activityPriority_11" value="1.0" />
		<param name="activityTypicalDuration_11" value="17:00:00" />
		<param name="activityMinimalDuration_11" value="undefined" />
		<param name="activityOpeningTime_11" value="undefined" />
		<param name="activityLatestStartTime_11" value="undefined" />
		<param name="activityEarliestEndTime_11" value="undefined" />
		<param name="activityClosingTime_11" value="undefined" />

		<!--  ============================  -->
		<param name="activityType_12" value="h18" />

		<param name="activityPriority_12" value="1.0" />
		<param name="activityTypicalDuration_12" value="18:00:00" />
		<param name="activityMinimalDuration_12" value="undefined" />
		<param name="activityOpeningTime_12" value="undefined" />
		<param name="activityLatestStartTime_12" value="undefined" />
		<param name="activityEarliestEndTime_12" value="undefined" />
		<param name="activityClosingTime_12" value="undefined" />

		<!--  ============================  -->
		<param name="activityType_13" value="h19" />

		<param name="activityPriority_13" value="1.0" />
		<param name="activityTypicalDuration_13" value="19:00:00" />
		<param name="activityMinimalDuration_13" value="undefined" />
		<param name="activityOpeningTime_13" value="undefined" />
		<param name="activityLatestStartTime_13" value="undefined" />
		<param name="activityEarliestEndTime_13" value="undefined" />
		<param name="activityClosingTime_13" value="undefined" />

		<!--  ============================  -->
		<param name="activityType_14" value="h2" />

		<param name="activityPriority_14" value="1.0" />
		<param name="activityTypicalDuration_14" value="02:00:00" />
		<param name="activityMinimalDuration_14" value="undefined" />
		<param name="activityOpeningTime_14" value="undefined" />
		<param name="activityLatestStartTime_14" value="undefined" />
		<param name="activityEarliestEndTime_14" value="undefined" />
		<param name="activityClosingTime_14" value="undefined" />

		<!--  ============================  -->
		<param name="activityType_15" value="h20" />

		<param name="activityPriority_15" value="1.0" />
		<param name="activityTypicalDuration_15" value="20:00:00" />
		<param name="activityMinimalDuration_15" value="undefined" />
		<param name="activityOpeningTime_15" value="undefined" />
		<param name="activityLatestStartTime_15" value="undefined" />
		<param name="activityEarliestEndTime_15" value="undefined" />
		<param name="activityClosingTime_15" value="undefined" />

		<!--  ============================  -->
		<param name="activityType_16" value="h21" />

		<param name="activityPriority_16" value="1.0" />
		<param name="activityTypicalDuration_16" value="21:00:00" />
		<param name="activityMinimalDuration_16" value="undefined" />
		<param name="activityOpeningTime_16" value="undefined" />
		<param name="activityLatestStartTime_16" value="undefined" />
		<param name="activityEarliestEndTime_16" value="undefined" />
		<param name="activityClosingTime_16" value="undefined" />

		<!--  ============================  -->
		<param name="activityType_17" value="h22" />

		<param name="activityPriority_17" value="1.0" />
		<param name="activityTypicalDuration_17" value="22:00:00" />
		<param name="activityMinimalDuration_17" value="undefined" />
		<param name="activityOpeningTime_17" value="undefined" />
		<param name="activityLatestStartTime_17" value="undefined" />
		<param name="activityEarliestEndTime_17" value="undefined" />
		<param name="activityClosingTime_17" value="undefined" />

		<!--  ============================  -->
		<param name="activityType_18" value="h23" />

		<param name="activityPriority_18" value="1.0" />
		<param name="activityTypicalDuration_18" value="23:00:00" />
		<param name="activityMinimalDuration_18" value="undefined" />
		<param name="activityOpeningTime_18" value="undefined" />
		<param name="activityLatestStartTime_18" value="undefined" />
		<param name="activityEarliestEndTime_18" value="undefined" />
		<param name="activityClosingTime_18" value="undefined" />

		<!--  ============================  -->
		<param name="activityType_19" value="h24" />

		<param name="activityPriority_19" value="1.0" />
		<param name="activityTypicalDuration_19" value="24:00:00" />
		<param name="activityMinimalDuration_19" value="undefined" />
		<param name="activityOpeningTime_19" value="undefined" />
		<param name="activityLatestStartTime_19" value="undefined" />
		<param name="activityEarliestEndTime_19" value="undefined" />
		<param name="activityClosingTime_19" value="undefined" />

		<!--  ============================  -->
		<param name="activityType_20" value="w0.5" />

		<param name="activityPriority_20" value="1.0" />
		<param name="activityTypicalDuration_20" value="00:30:00" />
		<param name="activityMinimalDuration_20" value="undefined" />
		<param name="activityOpeningTime_20" value="undefined" />
		<param name="activityLatestStartTime_20" value="undefined" />
		<param name="activityEarliestEndTime_20" value="undefined" />
		<param name="activityClosingTime_20" value="undefined" />

		<!--  ============================  -->
		<param name="activityType_21" value="w1" />

		<param name="activityPriority_21" value="1.0" />
		<param name="activityTypicalDuration_21" value="01:00:00" />
		<param name="activityMinimalDuration_21" value="undefined" />
		<param name="activityOpeningTime_21" value="undefined" />
		<param name="activityLatestStartTime_21" value="undefined" />
		<param name="activityEarliestEndTime_21" value="undefined" />
		<param name="activityClosingTime_21" value="undefined" />

		<!--  ============================  -->
		<param name="activityType_22" value="w2" />

		<param name="activityPriority_22" value="1.0" />
		<param name="activityTypicalDuration_22" value="02:00:00" />
		<param name="activityMinimalDuration_22" value="undefined" />
		<param name="activityOpeningTime_22" value="undefined" />
		<param name="activityLatestStartTime_22" value="undefined" />
		<param name="activityEarliestEndTime_22" value="undefined" />
		<param name="activityClosingTime_22" value="undefined" />

		<!--  ============================  -->
		<param name="activityType_23" value="w3" />

		<param name="activityPriority_23" value="1.0" />
		<param name="activityTypicalDuration_23" value="03:00:00" />
		<param name="activityMinimalDuration_23" value="undefined" />
		<param name="activityOpeningTime_23" value="undefined" />
		<param name="activityLatestStartTime_23" value="undefined" />
		<param name="activityEarliestEndTime_23" value="undefined" />
		<param name="activityClosingTime_23" value="undefined" />

		<!--  ============================  -->
		<param name="activityType_24" value="w4" />

		<param name="activityPriority_24" value="1.0" />
		<param name="activityTypicalDuration_24" value="04:00:00" />
		<param name="activityMinimalDuration_24" value="undefined" />
		<param name="activityOpeningTime_24" value="undefined" />
		<param name="activityLatestStartTime_24" value="undefined" />
		<param name="activityEarliestEndTime_24" value="undefined" />
		<param name="activityClosingTime_24" value="undefined" />

		<!--  ============================  -->
		<param name="activityType_25" value="h3" />

		<param name="activityPriority_25" value="1.0" />
		<param name="activityTypicalDuration_25" value="03:00:00" />
		<param name="activityMinimalDuration_25" value="undefined" />
		<param name="activityOpeningTime_25" value="undefined" />
		<param name="activityLatestStartTime_25" value="undefined" />
		<param name="activityEarliestEndTime_25" value="undefined" />
		<param name="activityClosingTime_25" value="undefined" />

		<!--  ============================  -->
		<param name="activityType_26" value="w5" />

		<param name="activityPriority_26" value="1.0" />
		<param name="activityTypicalDuration_26" value="05:00:00" />
		<param name="activityMinimalDuration_26" value="undefined" />
		<param name="activityOpeningTime_26" value="undefined" />
		<param name="activityLatestStartTime_26" value="undefined" />
		<param name="activityEarliestEndTime_26" value="undefined" />
		<param name="activityClosingTime_26" value="undefined" />

		<!--  ============================  -->
		<param name="activityType_27" value="w6" />

		<param name="activityPriority_27" value="1.0" />
		<param name="activityTypicalDuration_27" value="06:00:00" />
		<param name="activityMinimalDuration_27" value="undefined" />
		<param name="activityOpeningTime_27" value="undefined" />
		<param name="activityLatestStartTime_27" value="undefined" />
		<param name="activityEarliestEndTime_27" value="undefined" />
		<param name="activityClosingTime_27" value="undefined" />

		<!--  ============================  -->
		<param name="activityType_28" value="w7" />

		<param name="activityPriority_28" value="1.0" />
		<param name="activityTypicalDuration_28" value="07:00:00" />
		<param name="activityMinimalDuration_28" value="undefined" />
		<param name="activityOpeningTime_28" value="undefined" />
		<param name="activityLatestStartTime_28" value="undefined" />
		<param name="activityEarliestEndTime_28" value="undefined" />
		<param name="activityClosingTime_28" value="undefined" />

		<!--  ============================  -->
		<param name="activityType_29" value="w8" />

		<param name="activityPriority_29" value="1.0" />
		<param name="activityTypicalDuration_29" value="08:00:00" />
		<param name="activityMinimalDuration_29" value="undefined" />
		<param name="activityOpeningTime_29" value="undefined" />
		<param name="activityLatestStartTime_29" value="undefined" />
		<param name="activityEarliestEndTime_29" value="undefined" />
		<param name="activityClosingTime_29" value="undefined" />

		<!--  ============================  -->
		<param name="activityType_30" value="w9" />

		<param name="activityPriority_30" value="1.0" />
		<param name="activityTypicalDuration_30" value="09:00:00" />
		<param name="activityMinimalDuration_30" value="undefined" />
		<param name="activityOpeningTime_30" value="undefined" />
		<param name="activityLatestStartTime_30" value="undefined" />
		<param name="activityEarliestEndTime_30" value="undefined" />
		<param name="activityClosingTime_30" value="undefined" />

		<!--  ============================  -->
		<param name="activityType_31" value="w10" />

		<param name="activityPriority_31" value="1.0" />
		<param name="activityTypicalDuration_31" value="10:00:00" />
		<param name="activityMinimalDuration_31" value="undefined" />
		<param name="activityOpeningTime_31" value="undefined" />
		<param name="activityLatestStartTime_31" value="undefined" />
		<param name="activityEarliestEndTime_31" value="undefined" />
		<param name="activityClosingTime_31" value="undefined" />

		<!--  ============================  -->
		<param name="activityType_32" value="w11" />

		<param name="activityPriority_32" value="1.0" />
		<param name="activityTypicalDuration_32" value="11:00:00" />
		<param name="activityMinimalDuration_32" value="undefined" />
		<param name="activityOpeningTime_32" value="undefined" />
		<param name="activityLatestStartTime_32" value="undefined" />
		<param name="activityEarliestEndTime_32" value="undefined" />
		<param name="activityClosingTime_32" value="undefined" />

		<!--  ============================  -->
		<param name="activityType_33" value="w12" />

		<param name="activityPriority_33" value="1.0" />
		<param name="activityTypicalDuration_33" value="12:00:00" />
		<param name="activityMinimalDuration_33" value="undefined" />
		<param name="activityOpeningTime_33" value="undefined" />
		<param name="activityLatestStartTime_33" value="undefined" />
		<param name="activityEarliestEndTime_33" value="undefined" />
		<param name="activityClosingTime_33" value="undefined" />

		<!--  ============================  -->
		<param name="activityType_34" value="w13" />

		<param name="activityPriority_34" value="1.0" />
		<param name="activityTypicalDuration_34" value="13:00:00" />
		<param name="activityMinimalDuration_34" value="undefined" />
		<param name="activityOpeningTime_34" value="undefined" />
		<param name="activityLatestStartTime_34" value="undefined" />
		<param name="activityEarliestEndTime_34" value="undefined" />
		<param name="activityClosingTime_34" value="undefined" />

		<!--  ============================  -->
		<param name="activityType_35" value="w14" />

		<param name="activityPriority_35" value="1.0" />
		<param name="activityTypicalDuration_35" value="14:00:00" />
		<param name="activityMinimalDuration_35" value="undefined" />
		<param name="activityOpeningTime_35" value="undefined" />
		<param name="activityLatestStartTime_35" value="undefined" />
		<param name="activityEarliestEndTime_35" value="undefined" />
		<param name="activityClosingTime_35" value="undefined" />

		<!--  ============================  -->
		<param name="activityType_36" value="h4" />

		<param name="activityPriority_36" value="1.0" />
		<param name="activityTypicalDuration_36" value="04:00:00" />
		<param name="activityMinimalDuration_36" value="undefined" />
		<param name="activityOpeningTime_36" value="undefined" />
		<param name="activityLatestStartTime_36" value="undefined" />
		<param name="activityEarliestEndTime_36" value="undefined" />
		<param name="activityClosingTime_36" value="undefined" />

		<!--  ============================  -->
		<param name="activityType_37" value="w15" />

		<param name="activityPriority_37" value="1.0" />
		<param name="activityTypicalDuration_37" value="15:00:00" />
		<param name="activityMinimalDuration_37" value="undefined" />
		<param name="activityOpeningTime_37" value="undefined" />
		<param name="activityLatestStartTime_37" value="undefined" />
		<param name="activityEarliestEndTime_37" value="undefined" />
		<param name="activityClosingTime_37" value="undefined" />

		<!--  ============================  -->
		<param name="activityType_38" value="w16" />

		<param name="activityPriority_38" value="1.0" />
		<param name="activityTypicalDuration_38" value="16:00:00" />
		<param name="activityMinimalDuration_38" value="undefined" />
		<param name="activityOpeningTime_38" value="undefined" />
		<param name="activityLatestStartTime_38" value="undefined" />
		<param name="activityEarliestEndTime_38" value="undefined" />
		<param name="activityClosingTime_38" value="undefined" />

		<!--  ============================  -->
		<param name="activityType_39" value="w17" />

		<param name="activityPriority_39" value="1.0" />
		<param name="activityTypicalDuration_39" value="17:00:00" />
		<param name="activityMinimalDuration_39" value="undefined" />
		<param name="activityOpeningTime_39" value="undefined" />
		<param name="activityLatestStartTime_39" value="undefined" />
		<param name="activityEarliestEndTime_39" value="undefined" />
		<param name="activityClosingTime_39" value="undefined" />

		<!--  ============================  -->
		<param name="activityType_40" value="w18" />

		<param name="activityPriority_40" value="1.0" />
		<param name="activityTypicalDuration_40" value="18:00:00" />
		<param name="activityMinimalDuration_40" value="undefined" />
		<param name="activityOpeningTime_40" value="undefined" />
		<param name="activityLatestStartTime_40" value="undefined" />
		<param name="activityEarliestEndTime_40" value="undefined" />
		<param name="activityClosingTime_40" value="undefined" />

		<!--  ============================  -->
		<param name="activityType_41" value="w19" />

		<param name="activityPriority_41" value="1.0" />
		<param name="activityTypicalDuration_41" value="19:00:00" />
		<param name="activityMinimalDuration_41" value="undefined" />
		<param name="activityOpeningTime_41" value="undefined" />
		<param name="activityLatestStartTime_41" value="undefined" />
		<param name="activityEarliestEndTime_41" value="undefined" />
		<param name="activityClosingTime_41" value="undefined" />

		<!--  ============================  -->
		<param name="activityType_42" value="w20" />

		<param name="activityPriority_42" value="1.0" />
		<param name="activityTypicalDuration_42" value="20:00:00" />
		<param name="activityMinimalDuration_42" value="undefined" />
		<param name="activityOpeningTime_42" value="undefined" />
		<param name="activityLatestStartTime_42" value="undefined" />
		<param name="activityEarliestEndTime_42" value="undefined" />
		<param name="activityClosingTime_42" value="undefined" />

		<!--  ============================  -->
		<param name="activityType_43" value="e0.5" />

		<param name="activityPriority_43" value="1.0" />
		<param name="activityTypicalDuration_43" value="00:30:00" />
		<param name="activityMinimalDuration_43" value="undefined" />
		<param name="activityOpeningTime_43" value="undefined" />
		<param name="activityLatestStartTime_43" value="undefined" />
		<param name="activityEarliestEndTime_43" value="undefined" />
		<param name="activityClosingTime_43" value="undefined" />

		<!--  ============================  -->
		<param name="activityType_44" value="e1" />

		<param name="activityPriority_44" value="1.0" />
		<param name="activityTypicalDuration_44" value="01:00:00" />
		<param name="activityMinimalDuration_44" value="undefined" />
		<param name="activityOpeningTime_44" value="undefined" />
		<param name="activityLatestStartTime_44" value="undefined" />
		<param name="activityEarliestEndTime_44" value="undefined" />
		<param name="activityClosingTime_44" value="undefined" />

		<!--  ============================  -->
		<param name="activityType_45" value="e2" />

		<param name="activityPriority_45" value="1.0" />
		<param name="activityTypicalDuration_45" value="02:00:00" />
		<param name="activityMinimalDuration_45" value="undefined" />
		<param name="activityOpeningTime_45" value="undefined" />
		<param name="activityLatestStartTime_45" value="undefined" />
		<param name="activityEarliestEndTime_45" value="undefined" />
		<param name="activityClosingTime_45" value="undefined" />

		<!--  ============================  -->
		<param name="activityType_46" value="e3" />

		<param name="activityPriority_46" value="1.0" />
		<param name="activityTypicalDuration_46" value="03:00:00" />
		<param name="activityMinimalDuration_46" value="undefined" />
		<param name="activityOpeningTime_46" value="undefined" />
		<param name="activityLatestStartTime_46" value="undefined" />
		<param name="activityEarliestEndTime_46" value="undefined" />
		<param name="activityClosingTime_46" value="undefined" />

		<!--  ============================  -->
		<param name="activityType_47" value="h5" />

		<param name="activityPriority_47" value="1.0" />
		<param name="activityTypicalDuration_47" value="05:00:00" />
		<param name="activityMinimalDuration_47" value="undefined" />
		<param name="activityOpeningTime_47" value="undefined" />
		<param name="activityLatestStartTime_47" value="undefined" />
		<param name="activityEarliestEndTime_47" value="undefined" />
		<param name="activityClosingTime_47" value="undefined" />

		<!--  ============================  -->
		<param name="activityType_48" value="e4" />

		<param name="activityPriority_48" value="1.0" />
		<param name="activityTypicalDuration_48" value="04:00:00" />
		<param name="activityMinimalDuration_48" value="undefined" />
		<param name="activityOpeningTime_48" value="undefined" />
		<param name="activityLatestStartTime_48" value="undefined" />
		<param name="activityEarliestEndTime_48" value="undefined" />
		<param name="activityClosingTime_48" value="undefined" />

		<!--  ============================  -->
		<param name="activityType_49" value="e5" />

		<param name="activityPriority_49" value="1.0" />
		<param name="activityTypicalDuration_49" value="05:00:00" />
		<param name="activityMinimalDuration_49" value="undefined" />
		<param name="activityOpeningTime_49" value="undefined" />
		<param name="activityLatestStartTime_49" value="undefined" />
		<param name="activityEarliestEndTime_49" value="undefined" />
		<param name="activityClosingTime_49" value="undefined" />

		<!--  ============================  -->
		<param name="activityType_50" value="e6" />

		<param name="activityPriority_50" value="1.0" />
		<param name="activityTypicalDuration_50" value="06:00:00" />
		<param name="activityMinimalDuration_50" value="undefined" />
		<param name="activityOpeningTime_50" value="undefined" />
		<param name="activityLatestStartTime_50" value="undefined" />
		<param name="activityEarliestEndTime_50" value="undefined" />
		<param name="activityClosingTime_50" value="undefined" />

		<!--  ============================  -->
		<param name="activityType_51" value="e7" />

		<param name="activityPriority_51" value="1.0" />
		<param name="activityTypicalDuration_51" value="07:00:00" />
		<param name="activityMinimalDuration_51" value="undefined" />
		<param name="activityOpeningTime_51" value="undefined" />
		<param name="activityLatestStartTime_51" value="undefined" />
		<param name="activityEarliestEndTime_51" value="undefined" />
		<param name="activityClosingTime_51" value="undefined" />

		<!--  ============================  -->
		<param name="activityType_52" value="e8" />

		<param name="activityPriority_52" value="1.0" />
		<param name="activityTypicalDuration_52" value="08:00:00" />
		<param name="activityMinimalDuration_52" value="undefined" />
		<param name="activityOpeningTime_52" value="undefined" />
		<param name="activityLatestStartTime_52" value="undefined" />
		<param name="activityEarliestEndTime_52" value="undefined" />
		<param name="activityClosingTime_52" value="undefined" />

		<!--  ============================  -->
		<param name="activityType_53" value="e9" />

		<param name="activityPriority_53" value="1.0" />
		<param name="activityTypicalDuration_53" value="09:00:00" />
		<param name="activityMinimalDuration_53" value="undefined" />
		<param name="activityOpeningTime_53" value="undefined" />
		<param name="activityLatestStartTime_53" value="undefined" />
		<param name="activityEarliestEndTime_53" value="undefined" />
		<param name="activityClosingTime_53" value="undefined" />

		<!--  ============================  -->
		<param name="activityType_54" value="e10" />

		<param name="activityPriority_54" value="1.0" />
		<param name="activityTypicalDuration_54" value="10:00:00" />
		<param name="activityMinimalDuration_54" value="undefined" />
		<param name="activityOpeningTime_54" value="undefined" />
		<param name="activityLatestStartTime_54" value="undefined" />
		<param name="activityEarliestEndTime_54" value="undefined" />
		<param name="activityClosingTime_54" value="undefined" />

		<!--  ============================  -->
		<param name="activityType_55" value="e11" />

		<param name="activityPriority_55" value="1.0" />
		<param name="activityTypicalDuration_55" value="11:00:00" />
		<param name="activityMinimalDuration_55" value="undefined" />
		<param name="activityOpeningTime_55" value="undefined" />
		<param name="activityLatestStartTime_55" value="undefined" />
		<param name="activityEarliestEndTime_55" value="undefined" />
		<param name="activityClosingTime_55" value="undefined" />

		<!--  ============================  -->
		<param name="activityType_56" value="e12" />

		<param name="activityPriority_56" value="1.0" />
		<param name="activityTypicalDuration_56" value="12:00:00" />
		<param name="activityMinimalDuration_56" value="undefined" />
		<param name="activityOpeningTime_56" value="undefined" />
		<param name="activityLatestStartTime_56" value="undefined" />
		<param name="activityEarliestEndTime_56" value="undefined" />
		<param name="activityClosingTime_56" value="undefined" />

		<!--  ============================  -->
		<param name="activityType_57" value="e13" />

		<param name="activityPriority_57" value="1.0" />
		<param name="activityTypicalDuration_57" value="13:00:00" />
		<param name="activityMinimalDuration_57" value="undefined" />
		<param name="activityOpeningTime_57" value="undefined" />
		<param name="activityLatestStartTime_57" value="undefined" />
		<param name="activityEarliestEndTime_57" value="undefined" />
		<param name="activityClosingTime_57" value="undefined" />

		<!--  ============================  -->
		<param name="activityType_58" value="h6" />

		<param name="activityPriority_58" value="1.0" />
		<param name="activityTypicalDuration_58" value="06:00:00" />
		<param name="activityMinimalDuration_58" value="undefined" />
		<param name="activityOpeningTime_58" value="undefined" />
		<param name="activityLatestStartTime_58" value="undefined" />
		<param name="activityEarliestEndTime_58" value="undefined" />
		<param name="activityClosingTime_58" value="undefined" />

		<!--  ============================  -->
		<param name="activityType_59" value="e14" />

		<param name="activityPriority_59" value="1.0" />
		<param name="activityTypicalDuration_59" value="14:00:00" />
		<param name="activityMinimalDuration_59" value="undefined" />
		<param name="activityOpeningTime_59" value="undefined" />
		<param name="activityLatestStartTime_59" value="undefined" />
		<param name="activityEarliestEndTime_59" value="undefined" />
		<param name="activityClosingTime_59" value="undefined" />

		<!--  ============================  -->
		<param name="activityType_60" value="e15" />

		<param name="activityPriority_60" value="1.0" />
		<param name="activityTypicalDuration_60" value="15:00:00" />
		<param name="activityMinimalDuration_60" value="undefined" />
		<param name="activityOpeningTime_60" value="undefined" />
		<param name="activityLatestStartTime_60" value="undefined" />
		<param name="activityEarliestEndTime_60" value="undefined" />
		<param name="activityClosingTime_60" value="undefined" />

		<!--  ============================  -->
		<param name="activityType_61" value="e16" />

		<param name="activityPriority_61" value="1.0" />
		<param name="activityTypicalDuration_61" value="16:00:00" />
		<param name="activityMinimalDuration_61" value="undefined" />
		<param name="activityOpeningTime_61" value="undefined" />
		<param name="activityLatestStartTime_61" value="undefined" />
		<param name="activityEarliestEndTime_61" value="undefined" />
		<param name="activityClosingTime_61" value="undefined" />

		<!--  ============================  -->
		<param name="activityType_62" value="e17" />

		<param name="activityPriority_62" value="1.0" />
		<param name="activityTypicalDuration_62" value="17:00:00" />
		<param name="activityMinimalDuration_62" value="undefined" />
		<param name="activityOpeningTime_62" value="undefined" />
		<param name="activityLatestStartTime_62" value="undefined" />
		<param name="activityEarliestEndTime_62" value="undefined" />
		<param name="activityClosingTime_62" value="undefined" />

		<!--  ============================  -->
		<param name="activityType_63" value="e18" />

		<param name="activityPriority_63" value="1.0" />
		<param name="activityTypicalDuration_63" value="18:00:00" />
		<param name="activityMinimalDuration_63" value="undefined" />
		<param name="activityOpeningTime_63" value="undefined" />
		<param name="activityLatestStartTime_63" value="undefined" />
		<param name="activityEarliestEndTime_63" value="undefined" />
		<param name="activityClosingTime_63" value="undefined" />

		<!--  ============================  -->
		<param name="activityType_64" value="e19" />

		<param name="activityPriority_64" value="1.0" />
		<param name="activityTypicalDuration_64" value="19:00:00" />
		<param name="activityMinimalDuration_64" value="undefined" />
		<param name="activityOpeningTime_64" value="undefined" />
		<param name="activityLatestStartTime_64" value="undefined" />
		<param name="activityEarliestEndTime_64" value="undefined" />
		<param name="activityClosingTime_64" value="undefined" />

		<!--  ============================  -->
		<param name="activityType_65" value="e20" />

		<param name="activityPriority_65" value="1.0" />
		<param name="activityTypicalDuration_65" value="20:00:00" />
		<param name="activityMinimalDuration_65" value="undefined" />
		<param name="activityOpeningTime_65" value="undefined" />
		<param name="activityLatestStartTime_65" value="undefined" />
		<param name="activityEarliestEndTime_65" value="undefined" />
		<param name="activityClosingTime_65" value="undefined" />

		<!--  ============================  -->
		<param name="activityType_66" value="l0.5" />

		<param name="activityPriority_66" value="1.0" />
		<param name="activityTypicalDuration_66" value="00:30:00" />
		<param name="activityMinimalDuration_66" value="undefined" />
		<param name="activityOpeningTime_66" value="undefined" />
		<param name="activityLatestStartTime_66" value="undefined" />
		<param name="activityEarliestEndTime_66" value="undefined" />
		<param name="activityClosingTime_66" value="undefined" />

		<!--  ============================  -->
		<param name="activityType_67" value="l1" />

		<param name="activityPriority_67" value="1.0" />
		<param name="activityTypicalDuration_67" value="01:00:00" />
		<param name="activityMinimalDuration_67" value="undefined" />
		<param name="activityOpeningTime_67" value="undefined" />
		<param name="activityLatestStartTime_67" value="undefined" />
		<param name="activityEarliestEndTime_67" value="undefined" />
		<param name="activityClosingTime_67" value="undefined" />

		<!--  ============================  -->
		<param name="activityType_68" value="l2" />

		<param name="activityPriority_68" value="1.0" />
		<param name="activityTypicalDuration_68" value="02:00:00" />
		<param name="activityMinimalDuration_68" value="undefined" />
		<param name="activityOpeningTime_68" value="undefined" />
		<param name="activityLatestStartTime_68" value="undefined" />
		<param name="activityEarliestEndTime_68" value="undefined" />
		<param name="activityClosingTime_68" value="undefined" />

		<!--  ============================  -->
		<param name="activityType_69" value="h7" />

		<param name="activityPriority_69" value="1.0" />
		<param name="activityTypicalDuration_69" value="07:00:00" />
		<param name="activityMinimalDuration_69" value="undefined" />
		<param name="activityOpeningTime_69" value="undefined" />
		<param name="activityLatestStartTime_69" value="undefined" />
		<param name="activityEarliestEndTime_69" value="undefined" />
		<param name="activityClosingTime_69" value="undefined" />

		<!--  ============================  -->
		<param name="activityType_70" value="l3" />

		<param name="activityPriority_70" value="1.0" />
		<param name="activityTypicalDuration_70" value="03:00:00" />
		<param name="activityMinimalDuration_70" value="undefined" />
		<param name="activityOpeningTime_70" value="undefined" />
		<param name="activityLatestStartTime_70" value="undefined" />
		<param name="activityEarliestEndTime_70" value="undefined" />
		<param name="activityClosingTime_70" value="undefined" />

		<!--  ============================  -->
		<param name="activityType_71" value="l4" />

		<param name="activityPriority_71" value="1.0" />
		<param name="activityTypicalDuration_71" value="04:00:00" />
		<param name="activityMinimalDuration_71" value="undefined" />
		<param name="activityOpeningTime_71" value="undefined" />
		<param name="activityLatestStartTime_71" value="undefined" />
		<param name="activityEarliestEndTime_71" value="undefined" />
		<param name="activityClosingTime_71" value="undefined" />

		<!--  ============================  -->
		<param name="activityType_72" value="l5" />

		<param name="activityPriority_72" value="1.0" />
		<param name="activityTypicalDuration_72" value="05:00:00" />
		<param name="activityMinimalDuration_72" value="undefined" />
		<param name="activityOpeningTime_72" value="undefined" />
		<param name="activityLatestStartTime_72" value="undefined" />
		<param name="activityEarliestEndTime_72" value="undefined" />
		<param name="activityClosingTime_72" value="undefined" />

		<!--  ============================  -->
		<param name="activityType_73" value="l6" />

		<param name="activityPriority_73" value="1.0" />
		<param name="activityTypicalDuration_73" value="06:00:00" />
		<param name="activityMinimalDuration_73" value="undefined" />
		<param name="activityOpeningTime_73" value="undefined" />
		<param name="activityLatestStartTime_73" value="undefined" />
		<param name="activityEarliestEndTime_73" value="undefined" />
		<param name="activityClosingTime_73" value="undefined" />

		<!--  ============================  -->
		<param name="activityType_74" value="l7" />

		<param name="activityPriority_74" value="1.0" />
		<param name="activityTypicalDuration_74" value="07:00:00" />
		<param name="activityMinimalDuration_74" value="undefined" />
		<param name="activityOpeningTime_74" value="undefined" />
		<param name="activityLatestStartTime_74" value="undefined" />
		<param name="activityEarliestEndTime_74" value="undefined" />
		<param name="activityClosingTime_74" value="undefined" />

		<!--  ============================  -->
		<param name="activityType_75" value="l8" />

		<param name="activityPriority_75" value="1.0" />
		<param name="activityTypicalDuration_75" value="08:00:00" />
		<param name="activityMinimalDuration_75" value="undefined" />
		<param name="activityOpeningTime_75" value="undefined" />
		<param name="activityLatestStartTime_75" value="undefined" />
		<param name="activityEarliestEndTime_75" value="undefined" />
		<param name="activityClosingTime_75" value="undefined" />

		<!--  ============================  -->
		<param name="activityType_76" value="l9" />

		<param name="activityPriority_76" value="1.0" />
		<param name="activityTypicalDuration_76" value="09:00:00" />
		<param name="activityMinimalDuration_76" value="undefined" />
		<param name="activityOpeningTime_76" value="undefined" />
		<param name="activityLatestStartTime_76" value="undefined" />
		<param name="activityEarliestEndTime_76" value="undefined" />
		<param name="activityClosingTime_76" value="undefined" />

		<!--  ============================  -->
		<param name="activityType_77" value="l10" />

		<param name="activityPriority_77" value="1.0" />
		<param name="activityTypicalDuration_77" value="10:00:00" />
		<param name="activityMinimalDuration_77" value="undefined" />
		<param name="activityOpeningTime_77" value="undefined" />
		<param name="activityLatestStartTime_77" value="undefined" />
		<param name="activityEarliestEndTime_77" value="undefined" />
		<param name="activityClosingTime_77" value="undefined" />

		<!--  ============================  -->
		<param name="activityType_78" value="l11" />

		<param name="activityPriority_78" value="1.0" />
		<param name="activityTypicalDuration_78" value="11:00:00" />
		<param name="activityMinimalDuration_78" value="undefined" />
		<param name="activityOpeningTime_78" value="undefined" />
		<param name="activityLatestStartTime_78" value="undefined" />
		<param name="activityEarliestEndTime_78" value="undefined" />
		<param name="activityClosingTime_78" value="undefined" />

		<!--  ============================  -->
		<param name="activityType_79" value="l12" />

		<param name="activityPriority_79" value="1.0" />
		<param name="activityTypicalDuration_79" value="12:00:00" />
		<param name="activityMinimalDuration_79" value="undefined" />
		<param name="activityOpeningTime_79" value="undefined" />
		<param name="activityLatestStartTime_79" value="undefined" />
		<param name="activityEarliestEndTime_79" value="undefined" />
		<param name="activityClosingTime_79" value="undefined" />

		<!--  ============================  -->
		<param name="activityType_80" value="h8" />

		<param name="activityPriority_80" value="1.0" />
		<param name="activityTypicalDuration_80" value="08:00:00" />
		<param name="activityMinimalDuration_80" value="undefined" />
		<param name="activityOpeningTime_80" value="undefined" />
		<param name="activityLatestStartTime_80" value="undefined" />
		<param name="activityEarliestEndTime_80" value="undefined" />
		<param name="activityClosingTime_80" value="undefined" />

		<!--  ============================  -->
		<param name="activityType_81" value="l13" />

		<param name="activityPriority_81" value="1.0" />
		<param name="activityTypicalDuration_81" value="13:00:00" />
		<param name="activityMinimalDuration_81" value="undefined" />
		<param name="activityOpeningTime_81" value="undefined" />
		<param name="activityLatestStartTime_81" value="undefined" />
		<param name="activityEarliestEndTime_81" value="undefined" />
		<param name="activityClosingTime_81" value="undefined" />

		<!--  ============================  -->
		<param name="activityType_82" value="l14" />

		<param name="activityPriority_82" value="1.0" />
		<param name="activityTypicalDuration_82" value="14:00:00" />
		<param name="activityMinimalDuration_82" value="undefined" />
		<param name="activityOpeningTime_82" value="undefined" />
		<param name="activityLatestStartTime_82" value="undefined" />
		<param name="activityEarliestEndTime_82" value="undefined" />
		<param name="activityClosingTime_82" value="undefined" />

		<!--  ============================  -->
		<param name="activityType_83" value="l15" />

		<param name="activityPriority_83" value="1.0" />
		<param name="activityTypicalDuration_83" value="15:00:00" />
		<param name="activityMinimalDuration_83" value="undefined" />
		<param name="activityOpeningTime_83" value="undefined" />
		<param name="activityLatestStartTime_83" value="undefined" />
		<param name="activityEarliestEndTime_83" value="undefined" />
		<param name="activityClosingTime_83" value="undefined" />

		<!--  ============================  -->
		<param name="activityType_84" value="l16" />

		<param name="activityPriority_84" value="1.0" />
		<param name="activityTypicalDuration_84" value="16:00:00" />
		<param name="activityMinimalDuration_84" value="undefined" />
		<param name="activityOpeningTime_84" value="undefined" />
		<param name="activityLatestStartTime_84" value="undefined" />
		<param name="activityEarliestEndTime_84" value="undefined" />
		<param name="activityClosingTime_84" value="undefined" />

		<!--  ============================  -->
		<param name="activityType_85" value="l17" />

		<param name="activityPriority_85" value="1.0" />
		<param name="activityTypicalDuration_85" value="17:00:00" />
		<param name="activityMinimalDuration_85" value="undefined" />
		<param name="activityOpeningTime_85" value="undefined" />
		<param name="activityLatestStartTime_85" value="undefined" />
		<param name="activityEarliestEndTime_85" value="undefined" />
		<param name="activityClosingTime_85" value="undefined" />

		<!--  ============================  -->
		<param name="activityType_86" value="l18" />

		<param name="activityPriority_86" value="1.0" />
		<param name="activityTypicalDuration_86" value="18:00:00" />
		<param name="activityMinimalDuration_86" value="undefined" />
		<param name="activityOpeningTime_86" value="undefined" />
		<param name="activityLatestStartTime_86" value="undefined" />
		<param name="activityEarliestEndTime_86" value="undefined" />
		<param name="activityClosingTime_86" value="undefined" />

		<!--  ============================  -->
		<param name="activityType_87" value="l19" />

		<param name="activityPriority_87" value="1.0" />
		<param name="activityTypicalDuration_87" value="19:00:00" />
		<param name="activityMinimalDuration_87" value="undefined" />
		<param name="activityOpeningTime_87" value="undefined" />
		<param name="activityLatestStartTime_87" value="undefined" />
		<param name="activityEarliestEndTime_87" value="undefined" />
		<param name="activityClosingTime_87" value="undefined" />

		<!--  ============================  -->
		<param name="activityType_88" value="l20" />

		<param name="activityPriority_88" value="1.0" />
		<param name="activityTypicalDuration_88" value="20:00:00" />
		<param name="activityMinimalDuration_88" value="undefined" />
		<param name="activityOpeningTime_88" value="undefined" />
		<param name="activityLatestStartTime_88" value="undefined" />
		<param name="activityEarliestEndTime_88" value="undefined" />
		<param name="activityClosingTime_88" value="undefined" />

		<!--  ============================  -->
		<param name="activityType_89" value="s0.5" />

		<param name="activityPriority_89" value="1.0" />
		<param name="activityTypicalDuration_89" value="00:30:00" />
		<param name="activityMinimalDuration_89" value="undefined" />
		<param name="activityOpeningTime_89" value="undefined" />
		<param name="activityLatestStartTime_89" value="undefined" />
		<param name="activityEarliestEndTime_89" value="undefined" />
		<param name="activityClosingTime_89" value="undefined" />

		<!--  ============================  -->
		<param name="activityType_90" value="s1" />

		<param name="activityPriority_90" value="1.0" />
		<param name="activityTypicalDuration_90" value="01:00:00" />
		<param name="activityMinimalDuration_90" value="undefined" />
		<param name="activityOpeningTime_90" value="undefined" />
		<param name="activityLatestStartTime_90" value="undefined" />
		<param name="activityEarliestEndTime_90" value="undefined" />
		<param name="activityClosingTime_90" value="undefined" />

		<!--  ============================  -->
		<param name="activityType_91" value="h9" />

		<param name="activityPriority_91" value="1.0" />
		<param name="activityTypicalDuration_91" value="09:00:00" />
		<param name="activityMinimalDuration_91" value="undefined" />
		<param name="activityOpeningTime_91" value="undefined" />
		<param name="activityLatestStartTime_91" value="undefined" />
		<param name="activityEarliestEndTime_91" value="undefined" />
		<param name="activityClosingTime_91" value="undefined" />

		<!--  ============================  -->
		<param name="activityType_92" value="s2" />

		<param name="activityPriority_92" value="1.0" />
		<param name="activityTypicalDuration_92" value="02:00:00" />
		<param name="activityMinimalDuration_92" value="undefined" />
		<param name="activityOpeningTime_92" value="undefined" />
		<param name="activityLatestStartTime_92" value="undefined" />
		<param name="activityEarliestEndTime_92" value="undefined" />
		<param name="activityClosingTime_92" value="undefined" />

		<!--  ============================  -->
		<param name="activityType_93" value="s3" />

		<param name="activityPriority_93" value="1.0" />
		<param name="activityTypicalDuration_93" value="03:00:00" />
		<param name="activityMinimalDuration_93" value="undefined" />
		<param name="activityOpeningTime_93" value="undefined" />
		<param name="activityLatestStartTime_93" value="undefined" />
		<param name="activityEarliestEndTime_93" value="undefined" />
		<param name="activityClosingTime_93" value="undefined" />

		<!--  ============================  -->
		<param name="activityType_94" value="s4" />

		<param name="activityPriority_94" value="1.0" />
		<param name="activityTypicalDuration_94" value="04:00:00" />
		<param name="activityMinimalDuration_94" value="undefined" />
		<param name="activityOpeningTime_94" value="undefined" />
		<param name="activityLatestStartTime_94" value="undefined" />
		<param name="activityEarliestEndTime_94" value="undefined" />
		<param name="activityClosingTime_94" value="undefined" />

		<!--  ============================  -->
		<param name="activityType_95" value="s5" />

		<param name="activityPriority_95" value="1.0" />
		<param name="activityTypicalDuration_95" value="05:00:00" />
		<param name="activityMinimalDuration_95" value="undefined" />
		<param name="activityOpeningTime_95" value="undefined" />
		<param name="activityLatestStartTime_95" value="undefined" />
		<param name="activityEarliestEndTime_95" value="undefined" />
		<param name="activityClosingTime_95" value="undefined" />

		<!--  ============================  -->
		<param name="activityType_96" value="s6" />

		<param name="activityPriority_96" value="1.0" />
		<param name="activityTypicalDuration_96" value="06:00:00" />
		<param name="activityMinimalDuration_96" value="undefined" />
		<param name="activityOpeningTime_96" value="undefined" />
		<param name="activityLatestStartTime_96" value="undefined" />
		<param name="activityEarliestEndTime_96" value="undefined" />
		<param name="activityClosingTime_96" value="undefined" />

		<!--  ============================  -->
		<param name="activityType_97" value="s7" />

		<param name="activityPriority_97" value="1.0" />
		<param name="activityTypicalDuration_97" value="07:00:00" />
		<param name="activityMinimalDuration_97" value="undefined" />
		<param name="activityOpeningTime_97" value="undefined" />
		<param name="activityLatestStartTime_97" value="undefined" />
		<param name="activityEarliestEndTime_97" value="undefined" />
		<param name="activityClosingTime_97" value="undefined" />

		<!--  ============================  -->
		<param name="activityType_98" value="s8" />

		<param name="activityPriority_98" value="1.0" />
		<param name="activityTypicalDuration_98" value="08:00:00" />
		<param name="activityMinimalDuration_98" value="undefined" />
		<param name="activityOpeningTime_98" value="undefined" />
		<param name="activityLatestStartTime_98" value="undefined" />
		<param name="activityEarliestEndTime_98" value="undefined" />
		<param name="activityClosingTime_98" value="undefined" />

		<!--  ============================  -->
		<param name="activityType_99" value="s9" />

		<param name="activityPriority_99" value="1.0" />
		<param name="activityTypicalDuration_99" value="09:00:00" />
		<param name="activityMinimalDuration_99" value="undefined" />
		<param name="activityOpeningTime_99" value="undefined" />
		<param name="activityLatestStartTime_99" value="undefined" />
		<param name="activityEarliestEndTime_99" value="undefined" />
		<param name="activityClosingTime_99" value="undefined" />

		<!--  ============================  -->
		<param name="activityType_100" value="s10" />

		<param name="activityPriority_100" value="1.0" />
		<param name="activityTypicalDuration_100" value="10:00:00" />
		<param name="activityMinimalDuration_100" value="undefined" />
		<param name="activityOpeningTime_100" value="undefined" />
		<param name="activityLatestStartTime_100" value="undefined" />
		<param name="activityEarliestEndTime_100" value="undefined" />
		<param name="activityClosingTime_100" value="undefined" />

		<!--  ============================  -->
		<param name="activityType_101" value="s11" />

		<param name="activityPriority_101" value="1.0" />
		<param name="activityTypicalDuration_101" value="11:00:00" />
		<param name="activityMinimalDuration_101" value="undefined" />
		<param name="activityOpeningTime_101" value="undefined" />
		<param name="activityLatestStartTime_101" value="undefined" />
		<param name="activityEarliestEndTime_101" value="undefined" />
		<param name="activityClosingTime_101" value="undefined" />
	</module>

<!-- ====================================================================== -->

	<module name="plans" >

		<!-- Path to a file containing person attributes (required file format: ObjectAttributes). -->
		<param name="inputPersonAttributesFile" value="null" />

		<param name="inputPlansFile" value="./input/population.xml" />

		<!-- Defines how routes are stored in memory. Currently supported: LinkNetworkRoute, CompressedNetworkRoute. -->
		<param name="networkRouteType" value="LinkNetworkRoute" />
	</module>

<!-- ====================================================================== -->

	<module name="planscalcroute" >

		<!-- factor with which beeline distances (and therefore times) are multiplied in order to obtain an estimate of the network distances/times.  Default is something like 1.3 -->
		<param name="beelineDistanceFactor" value="1.3" />

		<!-- All the modes for which the router is supposed to generate network routes (like car) -->
		<param name="networkModes" value="car,ride" />

		<!-- Free-speed factor for a teleported mode based on freespeed: freespeedFactor * <freespeed car travel time>. Insert a line like this for every such mode. freespeedFactor wins over teleportedModeSpeed, if both are set (says michaz). -->
		<param name="teleportedModeFreespeedFactor_pt" value="2.0" />

		<!-- Speed for a teleported mode based on beeline-distance: (<beeline distance> * beelineDistanceFactor) / speed. Insert a line like this for every such mode. -->
		<param name="teleportedModeSpeed_bike" value="4.166666666666667" />

		<!-- Speed for a teleported mode based on beeline-distance: (<beeline distance> * beelineDistanceFactor) / speed. Insert a line like this for every such mode. -->
		<param name="teleportedModeSpeed_undefined" value="13.88888888888889" />

		<!-- Speed for a teleported mode based on beeline-distance: (<beeline distance> * beelineDistanceFactor) / speed. Insert a line like this for every such mode. -->
		<param name="teleportedModeSpeed_walk" value="0.8333333333333333" />
	</module>

<!-- ====================================================================== -->

	<module name="ptCounts" >

		<!-- factor by which to re-scale the simulated values.  necessary when simulation runs with something different from 100%.  needs to be adapted manually -->
		<param name="countsScaleFactor" value="1.0" />

		<!-- distance to distanceFilterCenterNode to include counting stations. The unit of distance is the Euclidean distance implied by the coordinate system -->
		<param name="distanceFilter" value="null" />

		<!-- node id for center node of distance filter -->
		<param name="distanceFilterCenterNode" value="null" />

		<!-- input file containing the alighting (getting off) counts for pt -->
		<param name="inputAlightCountsFile" value="null" />

		<!-- input file containing the boarding (getting on) counts for pt -->
		<param name="inputBoardCountsFile" value="null" />

		<!-- input file containing the occupancy counts for pt -->
		<param name="inputOccupancyCountsFile" value="null" />

		<!-- possible values: `html', `kml', `txt', `all' -->
		<param name="outputformat" value="null" />

		<!-- every how many iterations (starting with 0) counts comparisons are generated -->
		<param name="ptCountsInterval" value="10" />
	</module>

<!-- ====================================================================== -->

	<module name="qsim" >
		<param name="endTime" value="00:00:00" />
		<param name="flowCapacityFactor" value="1.0" />

		<!-- decides if waiting vehicles enter the network after or before the already driving vehicles were moved. Default: false -->
		<param name="insertingWaitingVehiclesBeforeDrivingVehicles" value="false" />

		<!-- Defines which mode should be the qsim `main' (=congested) mode. Technically, this is the mode that the departure handler of the netsimengine handles.  Effective cell size, effective lane width, flow capacity factor, and storage capacity factor need to be set with diligence.  Needs to be a vehicular mode to make sense. -->
		<param name="mainMode" value="car" />

		<!-- Use number of threads > 1 for parallel version using the specified number of threads -->
		<param name="numberOfThreads" value="1" />

		<!-- Boolean. `true': stuck vehicles are removed, aborting the plan; `false': stuck vehicles are forced into the next link. `false' is probably the better choice. -->
		<param name="removeStuckVehicles" value="true" />

		<!-- `maxOfStarttimeAndEarliestActivityEnd' (default behavior) or `onlyUseStarttime' -->
		<param name="simStarttimeInterpretation" value="maxOfStarttimeAndEarliestActivityEnd" />

		<!-- snapshotStyle: `equiDist' (vehicles equidistant on link) or `queue' (vehicles queued at end of link) or `withHolesExperimental' (experimental!!) -->
		<param name="snapshotStyle" value="equiDist" />

		<param name="snapshotperiod" value="00:00:10" />
		<param name="startTime" value="00:00:00" />
		<param name="storageCapacityFactor" value="1.0" />

		<!-- time in seconds.  Time after which the frontmost vehicle on a link is called `stuck' if it does not move. -->
		<param name="stuckTime" value="100.0" />

		<param name="timeStepSize" value="00:00:01" />

		<!-- `queue' for the standard queue model, `withHolesExperimental' (experimental!!) for the queue model with holes -->
		<param name="trafficDynamics" value="queue" />

		<!-- Defines what happens if an agent wants to depart, but the specified vehicle is not available. One of: teleport, wait, exception -->
		<param name="vehicleBehavior" value="teleport" />
	</module>

<!-- ====================================================================== -->

	<module name="roadpricing" >
	</module>

<!-- ====================================================================== -->

	<module name="scenario" >

		<!-- Set this parameter to true if households should be used, false if not. -->
		<param name="useHouseholds" value="false" />

		<!-- Set this parameter to true if knowledge should be used, false if not. -->
		<param name="useKnowledge" value="false" />

		<!-- Set this parameter to true if lanes should be used, false if not. -->
		<param name="useLanes" value="false" />

		<!-- Set this parameter to true if roadpricing should be used, false if not. -->
		<param name="useRoadpricing" value="false" />

		<!-- Set this parameter to true if signal systems should be used, false if not. -->
		<param name="useSignalsystems" value="false" />

		<!-- Set this parameter to true if transit should be simulated, false if not. -->
		<param name="useTransit" value="false" />

		<!-- Set this parameter to true if vehicles should be used, false if not. -->
		<param name="useVehicles" value="false" />
	</module>

<!-- ====================================================================== -->

	<module name="signalsystems" >
		<param name="ambertimes" value="null" />
		<param name="intergreentimes" value="null" />
		<param name="signalcontrol" value="null" />
		<param name="signalgroups" value="null" />
		<param name="signalsystems" value="null" />
		<param name="useAmbertimes" value="false" />
		<param name="useIntergreentimes" value="false" />
	</module>

<!-- ====================================================================== -->

	<module name="strategy" >
		<param name="ExternalExeConfigTemplate" value="null" />
		<param name="ExternalExeTimeOut" value="3600" />
		<param name="ExternalExeTmpFileRootDir" value="null" />

		<!-- iteration after which module will be disabled.  most useful for ``innovative'' strategies (new routes, new times, ...) -->
		<param name="ModuleDisableAfterIteration_1" value="null" />

		<!-- iteration after which module will be disabled.  most useful for ``innovative'' strategies (new routes, new times, ...) -->
		<param name="ModuleDisableAfterIteration_2" value="null" />

		<!-- iteration after which module will be disabled.  most useful for ``innovative'' strategies (new routes, new times, ...) -->
		<param name="ModuleDisableAfterIteration_3" value="null" />

		<!-- path to external executable (if applicable) -->
		<param name="ModuleExePath_1" value="null" />

		<!-- path to external executable (if applicable) -->
		<param name="ModuleExePath_2" value="null" />

		<!-- path to external executable (if applicable) -->
		<param name="ModuleExePath_3" value="null" />

		<!-- probability that a strategy is applied to a given a person.  despite its name, this really is a ``weight'' -->
		<param name="ModuleProbability_1" value="0.9" />

		<!-- probability that a strategy is applied to a given a person.  despite its name, this really is a ``weight'' -->
		<param name="ModuleProbability_2" value="0.1" />

		<!-- probability that a strategy is applied to a given a person.  despite its name, this really is a ``weight'' -->
		<param name="ModuleProbability_3" value="0.1" />

		<!-- name of strategy (if not full class name, resolved in StrategyManagerConfigLoader) -->
		<param name="Module_1" value="BestScore" />

		<!-- name of strategy (if not full class name, resolved in StrategyManagerConfigLoader) -->
		<param name="Module_2" value="ReRoute" />

		<!-- name of strategy (if not full class name, resolved in StrategyManagerConfigLoader) -->
		<param name="Module_3" value="TimeAllocationMutator" />

		<!-- maximum number of plans per agent.  ``0'' means ``infinity''.  Currently (2010), ``5'' is a good number -->
		<param name="maxAgentPlanMemorySize" value="5" />

		<!-- name of PlanSelector for plans removal.  If not full class name, resolved in StrategyManagerConfigLoader.  default is `null', which eventually calls SelectWorstPlan. This is not a good choice from a discrete choice theoretical perspective. Alternatives, however, have not been systematically tested. kai, feb'12 -->
		<param name="planSelectorForRemoval" value="null" />
	</module>

<!-- ====================================================================== -->

	<module name="subtourModeChoice" >

		<!-- Defines the chain-based modes, seperated by commas -->
		<param name="chainBasedModes" value="car,bike" />

		<!-- Defines whether car availability must be considered or not. A agent has no car only if it has no license, or never access to a car -->
		<param name="considerCarAvailability" value="false" />

		<!-- Defines all the modes available, including chain-based modes, seperated by commas -->
		<param name="modes" value="car,pt,bike,walk" />
	</module>

<!-- ====================================================================== -->

	<module name="transit" >

		<!-- Comma-separated list of transportation modes that are handled as transit. Defaults to 'pt'. -->
		<param name="transitModes" value="pt" />

		<!-- Input file containing the transit schedule to be simulated. -->
		<param name="transitScheduleFile" value="null" />

		<!-- Input file containing the vehicles used by the departures in the transit schedule. -->
		<param name="vehiclesFile" value="null" />
	</module>

<!-- ====================================================================== -->

	<module name="transitRouter" >

		<!-- additional time the router allocates when a line switch happens. Can be interpreted as a 'safety' time that agents need to safely transfer from one line to another -->
		<param name="additionalTransferTime" value="0.0" />

		<!-- step size to increase searchRadius if no stops are found -->
		<param name="extensionRadius" value="200.0" />

		<!-- maximum beeline distance between stops that agents could transfer to by walking -->
		<param name="maxBeelineWalkConnectionDistance" value="100.0" />

		<!-- the radius in which stop locations are searched, given a start or target coordinate -->
		<param name="searchRadius" value="1000.0" />
	</module>

<!-- ====================================================================== -->

	<module name="travelTimeCalculator" >

		<!-- Transport modes that will be respected by the travel time collector. 'car' is default, which includes also bussed from the pt simulation module. Use this parameter in combination with 'filterModes' = true! -->
		<param name="analyzedModes" value="car" />

		<param name="calculateLinkToLinkTravelTimes" value="false" />
		<param name="calculateLinkTravelTimes" value="true" />

		<!-- If true, link travel times from legs performed on modes not included in the 'analyzedModes' parameter are ignored. -->
		<param name="filterModes" value="false" />

		<!-- How to deal with congested time bins that have no link entry events. `optimistic' assumes free speed (too optimistic); 'experimental_LastMile' is experimental and probably too pessimistic. -->
		<param name="travelTimeAggregator" value="optimistic" />

[...]
2013-05-01 00:46:07,835  INFO AbstractController:156 ###################################################
2013-05-01 00:46:07,835  INFO AbstractController:157 ### ITERATION 0 BEGINS
2013-05-01 00:46:07,839  INFO ControlerListenerManager:159 calling notifyIterationStarts on org.matsim.core.controler.corelisteners.PlansScoring
2013-05-01 00:46:07,861  INFO EventsManagerImpl:160 adding Event-Handler: org.matsim.core.scoring.EventsToScore
2013-05-01 00:46:07,861  INFO EventsManagerImpl:164   org.matsim.core.events.handler.BasicEventHandler
2013-05-01 00:46:07,862  INFO EventsManagerImpl:241     > org.matsim.core.api.experimental.events.Event
2013-05-01 00:46:07,862  INFO EventsManagerImpl:172 
2013-05-01 00:46:07,862  INFO ControlerListenerManager:164 calling notifyIterationStarts on org.matsim.core.controler.corelisteners.LinkStatsControlerListener
2013-05-01 00:46:07,862  INFO ControlerListenerManager:164 calling notifyIterationStarts on org.matsim.core.controler.corelisteners.LegHistogramListener
2013-05-01 00:46:07,863  INFO ControlerListenerManager:167 [it.0] all ControlerIterationStartsListeners called.
2013-05-01 00:46:07,864  INFO ControlerListenerManager:247 calling notifyBeforeMobsim on org.matsim.core.controler.corelisteners.EventsHandling
2013-05-01 00:46:07,864  INFO EventsManagerImpl:195 resetting Event-Handlers
2013-05-01 00:46:07,865  INFO EventsManagerImpl:202   org.matsim.analysis.VolumesAnalyzer
2013-05-01 00:46:07,865  INFO EventsManagerImpl:202   org.matsim.core.trafficmonitoring.TravelTimeCalculator
2013-05-01 00:46:07,875  INFO EventsManagerImpl:202   org.matsim.analysis.CalcLegTimes
2013-05-01 00:46:07,876  INFO EventsManagerImpl:202   org.matsim.analysis.LegHistogram
2013-05-01 00:46:07,876  INFO EventsManagerImpl:202   org.matsim.core.scoring.EventsToScore
2013-05-01 00:46:07,883  INFO EventsManagerImpl:160 adding Event-Handler: org.matsim.core.events.algorithms.EventWriterXML
2013-05-01 00:46:07,884  INFO EventsManagerImpl:164   org.matsim.core.events.algorithms.EventWriter
2013-05-01 00:46:07,884  INFO EventsManagerImpl:164   org.matsim.core.events.handler.BasicEventHandler
2013-05-01 00:46:07,884  INFO EventsManagerImpl:241     > org.matsim.core.api.experimental.events.Event
2013-05-01 00:46:07,884  INFO EventsManagerImpl:172 
2013-05-01 00:46:07,885  INFO ControlerListenerManager:247 calling notifyBeforeMobsim on org.matsim.core.controler.corelisteners.PlansDumping
2013-05-01 00:46:07,885  INFO PlansDumping:77 dumping plans...
2013-05-01 00:46:07,895  INFO Counter:51 [PopulationWriter] dumped person # 1
2013-05-01 00:46:07,896  INFO Counter:51 [PopulationWriter] dumped person # 2
2013-05-01 00:46:07,897  INFO Counter:57 [PopulationWriter] dumped person # 2
2013-05-01 00:46:07,897  INFO PopulationWriter:173 Population written to: ./output/ITERS/it.0/run0.0.plans.xml.gz
2013-05-01 00:46:07,897  INFO PlansDumping:79 finished plans dump.
2013-05-01 00:46:07,897  INFO ControlerListenerManager:255 [it.0] all ControlerBeforeMobsimListeners called.
2013-05-01 00:46:07,932  INFO QSim:169 Using QSim...
2013-05-01 00:46:08,559  INFO MobsimListenerManager:58 calling addQueueSimulationListener
2013-05-01 00:46:08,559  INFO MobsimListenerManager:62   assigned class org.matsim.core.mobsim.framework.listeners.MobsimListener to interface org.matsim.core.mobsim.framework.listeners.MobsimInitializedListener
2013-05-01 00:46:08,560  INFO MobsimListenerManager:62   assigned class org.matsim.core.mobsim.framework.listeners.MobsimListener to interface org.matsim.vis.snapshotwriters.SnapshotWriterManager
2013-05-01 00:46:08,560  INFO MobsimListenerManager:62   assigned class org.matsim.core.mobsim.framework.listeners.MobsimListener to interface org.matsim.core.mobsim.framework.listeners.MobsimBeforeCleanupListener
2013-05-01 00:46:08,560  INFO MobsimListenerManager:62   assigned class org.matsim.core.mobsim.framework.listeners.MobsimListener to interface org.matsim.core.mobsim.framework.listeners.MobsimListener
2013-05-01 00:46:08,562  INFO MobsimListenerManager:62   assigned class org.matsim.core.mobsim.framework.listeners.MobsimListener to interface org.matsim.core.mobsim.framework.listeners.MobsimAfterSimStepListener
2013-05-01 00:46:08,588  WARN QVehicle:73 No VehicleCapacity set in Vehicle. Use default value of 4.
2013-05-01 00:46:08,589  WARN QVehicle:73 No VehicleCapacity set in Vehicle. Use default value of 4.
2013-05-01 00:46:08,599  INFO EventsManagerImpl:153  event # 1
2013-05-01 00:46:08,604  INFO EventsManagerImpl:153  event # 2
2013-05-01 00:46:08,608  INFO EventsManagerImpl:153  event # 4
2013-05-01 00:46:08,610  INFO EventsManagerImpl:153  event # 8
2013-05-01 00:46:08,610  INFO QNetsimEngine:298 SIMULATION (QNetsimEngine) AT 08:10:30 : #links=2 #nodes=0
2013-05-01 00:46:08,611  INFO QSim:389 SIMULATION (NEW QSim) AT 08:10:30 : #Veh=2 lost=0 simT=0.0s realT=0s; (s/r): 0.0
2013-05-01 00:46:08,612  INFO Gbl:48 used RAM: 63375120B = 61889kB = 60MB  free: 35281136B = 33MB  total: 98656256B = 94MB
2013-05-01 00:46:08,617  INFO EventsManagerImpl:153  event # 16
2013-05-01 00:46:08,628  INFO EventsManagerImpl:153  event # 32
2013-05-01 00:46:08,651  INFO EventsManagerImpl:153  event # 64
2013-05-01 00:46:08,685  INFO EventsManagerImpl:153  event # 128
2013-05-01 00:46:08,718  INFO EventsManagerImpl:153  event # 256
2013-05-01 00:46:08,719  INFO QNetsimEngine:298 SIMULATION (QNetsimEngine) AT 09:00:00 : #links=2 #nodes=0
2013-05-01 00:46:08,720  INFO QSim:389 SIMULATION (NEW QSim) AT 09:00:00 : #Veh=2 lost=0 simT=2970.0s realT=0s; (s/r): Infinity
2013-05-01 00:46:08,721  INFO Gbl:48 used RAM: 64624576B = 63109kB = 61MB  free: 34031680B = 32MB  total: 98656256B = 94MB
2013-05-01 00:46:08,816  INFO AbstractController:174 ### ITERATION 0 fires after mobsim event
2013-05-01 00:46:08,817  INFO ControlerListenerManager:268 calling notifyAfterMobsim on org.matsim.core.controler.corelisteners.EventsHandling
2013-05-01 00:46:08,817  INFO ControlerListenerManager:268 calling notifyAfterMobsim on org.matsim.core.controler.corelisteners.LegTimesListener
2013-05-01 00:46:08,830  INFO LegTimesListener:48 [0] average trip (probably: leg) duration is: 2223 seconds = 00:37:03
2013-05-01 00:46:08,830  INFO ControlerListenerManager:276 [it.0] all ControlerAfterMobsimListeners called.
2013-05-01 00:46:08,831  INFO AbstractController:176 ### ITERATION 0 fires scoring event
2013-05-01 00:46:08,832  INFO ControlerListenerManager:204 calling notifyScoring on org.matsim.core.controler.corelisteners.PlansScoring
2013-05-01 00:46:08,833  INFO ControlerListenerManager:215 [it.0] all ControlerScoringListeners called.
2013-05-01 00:46:08,834  INFO AbstractController:178 ### ITERATION 0 fires iteration end event
2013-05-01 00:46:08,837  INFO ControlerListenerManager:180 calling notifyIterationEnds on org.matsim.core.controler.corelisteners.EventsHandling
2013-05-01 00:46:08,839  INFO EventsManagerImpl:177 removing Event-Handler: org.matsim.core.events.algorithms.EventWriterXML
2013-05-01 00:46:08,840  INFO ControlerListenerManager:180 calling notifyIterationEnds on org.matsim.core.controler.corelisteners.PlansScoring
2013-05-01 00:46:08,840  INFO EventsManagerImpl:177 removing Event-Handler: org.matsim.core.scoring.EventsToScore
2013-05-01 00:46:08,841  INFO ControlerListenerManager:187 calling notifyIterationEnds on org.matsim.core.controler.corelisteners.LinkStatsControlerListener
2013-05-01 00:46:08,841  INFO ControlerListenerManager:187 calling notifyIterationEnds on org.matsim.analysis.TravelDistanceStats
2013-05-01 00:46:08,843  INFO TravelDistanceStats:142 [TravelDistanceStats] using 4 thread(s).
2013-05-01 00:46:08,861  INFO TravelDistanceStats:155 [TravelDistanceStats] all threads finished.
2013-05-01 00:46:08,862  INFO TravelDistanceStats:184 -- average of the average leg distance per plan (executed plans only): 41003.787128650656
2013-05-01 00:46:08,862  INFO TravelDistanceStats:185 -- average of the average leg distance per plan (worst plans only): 41003.787128650656
2013-05-01 00:46:08,862  INFO TravelDistanceStats:186 -- average of the average leg distance per plan (all plans): 41003.787128650656
2013-05-01 00:46:08,862  INFO TravelDistanceStats:187 -- average of the average leg distance per plan (best plans only): 41003.787128650656
2013-05-01 00:46:08,863  INFO ControlerListenerManager:187 calling notifyIterationEnds on org.matsim.analysis.ScoreStats
2013-05-01 00:46:08,863  INFO ScoreStats:182 -- avg. score of the executed plan of each agent: 102.74186583724692
2013-05-01 00:46:08,864  INFO ScoreStats:188 -- avg. score of the worst plan of each agent: 102.74186583724692
2013-05-01 00:46:08,864  INFO ScoreStats:189 -- avg. of the avg. plan score per agent: 102.74186583724692
2013-05-01 00:46:08,864  INFO ScoreStats:190 -- avg. score of the best plan of each agent: 102.74186583724692
2013-05-01 00:46:08,865  INFO ControlerListenerManager:187 calling notifyIterationEnds on org.matsim.core.controler.corelisteners.LegHistogramListener
2013-05-01 00:46:08,906  INFO LegHistogramListener:77 number of legs:	4	100%
2013-05-01 00:46:08,907  INFO LegHistogramListener:84 number of car legs:	4	100.0%
2013-05-01 00:46:08,907  INFO LegHistogramListener:86 (car legs include legs by pt vehicles)
2013-05-01 00:46:12,952  INFO ControlerListenerManager:191 [it.0] all ControlerIterationEndsListeners called.
2013-05-01 00:46:12,956  INFO AbstractController:182 ### ITERATION 0 ENDS
2013-05-01 00:46:12,956  INFO AbstractController:183 ###################################################
2013-05-01 00:46:12,956  INFO AbstractController:156 ###################################################
2013-05-01 00:46:12,957  INFO AbstractController:157 ### ITERATION 1 BEGINS
2013-05-01 00:46:12,958  INFO ControlerListenerManager:159 calling notifyIterationStarts on org.matsim.core.controler.corelisteners.PlansScoring
2013-05-01 00:46:12,958  INFO EventsManagerImpl:160 adding Event-Handler: org.matsim.core.scoring.EventsToScore
2013-05-01 00:46:12,963  INFO EventsManagerImpl:164   org.matsim.core.events.handler.BasicEventHandler
2013-05-01 00:46:12,963  INFO EventsManagerImpl:241     > org.matsim.core.api.experimental.events.Event
2013-05-01 00:46:12,964  INFO EventsManagerImpl:172 
2013-05-01 00:46:12,964  INFO ControlerListenerManager:164 calling notifyIterationStarts on org.matsim.core.controler.corelisteners.LinkStatsControlerListener
2013-05-01 00:46:12,964  INFO ControlerListenerManager:164 calling notifyIterationStarts on org.matsim.core.controler.corelisteners.LegHistogramListener
2013-05-01 00:46:12,964  INFO ControlerListenerManager:167 [it.1] all ControlerIterationStartsListeners called.
2013-05-01 00:46:12,969  INFO ControlerListenerManager:227 calling notifyReplanning on org.matsim.core.controler.corelisteners.PlansReplanning
2013-05-01 00:46:12,994  INFO PlanStrategyImpl:125 Plan-Strategy finished, 0 plans handled. Strategy: BestPlanSelector
2013-05-01 00:46:12,994  INFO AbstractMultithreadedModule:140 [PlanRouter] starting threads, handling 1 plans
2013-05-01 00:46:13,012  INFO Counter:51 [PlanRouter] handled plan # 1
2013-05-01 00:46:13,050  INFO AbstractMultithreadedModule:155 [PlanRouter] all threads finished.
2013-05-01 00:46:13,050  INFO PlanStrategyImpl:125 Plan-Strategy finished, 1 plans handled. Strategy: RandomPlanSelector_ReRoute
2013-05-01 00:46:13,050  INFO AbstractMultithreadedModule:140 [PlanMutateTimeAllocation] starting threads, handling 1 plans
2013-05-01 00:46:13,052  INFO Counter:51 [PlanMutateTimeAllocation] handled plan # 1
2013-05-01 00:46:13,055  INFO AbstractMultithreadedModule:155 [PlanMutateTimeAllocation] all threads finished.
2013-05-01 00:46:13,056  INFO PlanStrategyImpl:125 Plan-Strategy finished, 1 plans handled. Strategy: RandomPlanSelector_TimeAllocationMutator
2013-05-01 00:46:13,056  INFO ControlerListenerManager:235 [it.1] all ControlerReplanningListeners called.
2013-05-01 00:46:13,056  INFO ControlerListenerManager:247 calling notifyBeforeMobsim on org.matsim.core.controler.corelisteners.EventsHandling
2013-05-01 00:46:13,056  INFO EventsManagerImpl:195 resetting Event-Handlers
2013-05-01 00:46:13,057  INFO EventsManagerImpl:202   org.matsim.analysis.VolumesAnalyzer
2013-05-01 00:46:13,057  INFO EventsManagerImpl:202   org.matsim.core.trafficmonitoring.TravelTimeCalculator
2013-05-01 00:46:13,069  INFO EventsManagerImpl:202   org.matsim.analysis.CalcLegTimes
2013-05-01 00:46:13,070  INFO EventsManagerImpl:202   org.matsim.analysis.LegHistogram
2013-05-01 00:46:13,070  INFO EventsManagerImpl:202   org.matsim.core.scoring.EventsToScore
2013-05-01 00:46:13,071  INFO ControlerListenerManager:247 calling notifyBeforeMobsim on org.matsim.core.controler.corelisteners.PlansDumping
2013-05-01 00:46:13,071  INFO PlansDumping:77 dumping plans...
2013-05-01 00:46:13,073  INFO Counter:51 [PopulationWriter] dumped person # 1
2013-05-01 00:46:13,074  INFO Counter:51 [PopulationWriter] dumped person # 2
2013-05-01 00:46:13,075  INFO Counter:57 [PopulationWriter] dumped person # 2
2013-05-01 00:46:13,075  INFO PopulationWriter:173 Population written to: ./output/ITERS/it.1/run0.1.plans.xml.gz
2013-05-01 00:46:13,075  INFO PlansDumping:79 finished plans dump.
2013-05-01 00:46:13,076  INFO ControlerListenerManager:255 [it.1] all ControlerBeforeMobsimListeners called.
2013-05-01 00:46:13,076  INFO QSim:169 Using QSim...
2013-05-01 00:46:13,673  WARN QVehicle:73 No VehicleCapacity set in Vehicle. Use default value of 4.
2013-05-01 00:46:13,673  WARN QVehicle:73 No VehicleCapacity set in Vehicle. Use default value of 4.
2013-05-01 00:46:13,676  INFO EventsManagerImpl:153  event # 1
2013-05-01 00:46:13,676  INFO EventsManagerImpl:153  event # 2
2013-05-01 00:46:13,677  INFO EventsManagerImpl:153  event # 4
2013-05-01 00:46:13,677  INFO QNetsimEngine:298 SIMULATION (QNetsimEngine) AT 08:10:30 : #links=1 #nodes=0
2013-05-01 00:46:13,680  INFO QSim:389 SIMULATION (NEW QSim) AT 08:10:30 : #Veh=2 lost=0 simT=0.0s realT=0s; (s/r): 0.0
2013-05-01 00:46:13,680  INFO Gbl:48 used RAM: 60795640B = 59370kB = 57MB  free: 44856584B = 42MB  total: 105652224B = 100MB
2013-05-01 00:46:13,681  INFO EventsManagerImpl:153  event # 8
2013-05-01 00:46:13,684  INFO EventsManagerImpl:153  event # 16
2013-05-01 00:46:13,687  INFO EventsManagerImpl:153  event # 32
2013-05-01 00:46:13,689  INFO EventsManagerImpl:153  event # 64
2013-05-01 00:46:13,692  INFO EventsManagerImpl:153  event # 128
2013-05-01 00:46:13,701  INFO QNetsimEngine:298 SIMULATION (QNetsimEngine) AT 09:00:00 : #links=2 #nodes=0
2013-05-01 00:46:13,701  INFO QSim:389 SIMULATION (NEW QSim) AT 09:00:00 : #Veh=2 lost=0 simT=2970.0s realT=0s; (s/r): Infinity
2013-05-01 00:46:13,702  INFO Gbl:48 used RAM: 61846152B = 60396kB = 58MB  free: 43806072B = 41MB  total: 105652224B = 100MB
2013-05-01 00:46:13,703  INFO EventsManagerImpl:153  event # 256
2013-05-01 00:46:13,762  INFO AbstractController:174 ### ITERATION 1 fires after mobsim event
2013-05-01 00:46:13,762  INFO ControlerListenerManager:268 calling notifyAfterMobsim on org.matsim.core.controler.corelisteners.EventsHandling
2013-05-01 00:46:13,762  INFO ControlerListenerManager:268 calling notifyAfterMobsim on org.matsim.core.controler.corelisteners.LegTimesListener
2013-05-01 00:46:13,764  INFO LegTimesListener:48 [1] average trip (probably: leg) duration is: 2223 seconds = 00:37:03
2013-05-01 00:46:13,764  INFO ControlerListenerManager:276 [it.1] all ControlerAfterMobsimListeners called.
2013-05-01 00:46:13,764  INFO AbstractController:176 ### ITERATION 1 fires scoring event
2013-05-01 00:46:13,765  INFO ControlerListenerManager:204 calling notifyScoring on org.matsim.core.controler.corelisteners.PlansScoring
2013-05-01 00:46:13,765  INFO ControlerListenerManager:215 [it.1] all ControlerScoringListeners called.
2013-05-01 00:46:13,765  INFO AbstractController:178 ### ITERATION 1 fires iteration end event
2013-05-01 00:46:13,765  INFO ControlerListenerManager:180 calling notifyIterationEnds on org.matsim.core.controler.corelisteners.EventsHandling
2013-05-01 00:46:13,765  INFO ControlerListenerManager:180 calling notifyIterationEnds on org.matsim.core.controler.corelisteners.PlansScoring
2013-05-01 00:46:13,766  INFO EventsManagerImpl:177 removing Event-Handler: org.matsim.core.scoring.EventsToScore
2013-05-01 00:46:13,766  INFO ControlerListenerManager:187 calling notifyIterationEnds on org.matsim.core.controler.corelisteners.LinkStatsControlerListener
2013-05-01 00:46:13,766  INFO ControlerListenerManager:187 calling notifyIterationEnds on org.matsim.analysis.TravelDistanceStats
2013-05-01 00:46:13,766  INFO TravelDistanceStats:142 [TravelDistanceStats] using 4 thread(s).
2013-05-01 00:46:13,770  INFO TravelDistanceStats:155 [TravelDistanceStats] all threads finished.
2013-05-01 00:46:13,770  INFO TravelDistanceStats:184 -- average of the average leg distance per plan (executed plans only): 41003.787128650656
2013-05-01 00:46:13,771  INFO TravelDistanceStats:185 -- average of the average leg distance per plan (worst plans only): 41003.787128650656
2013-05-01 00:46:13,771  INFO TravelDistanceStats:186 -- average of the average leg distance per plan (all plans): 41003.787128650656
2013-05-01 00:46:13,771  INFO TravelDistanceStats:187 -- average of the average leg distance per plan (best plans only): 41003.787128650656
2013-05-01 00:46:14,218  INFO ControlerListenerManager:187 calling notifyIterationEnds on org.matsim.analysis.ScoreStats
2013-05-01 00:46:14,219  INFO ScoreStats:182 -- avg. score of the executed plan of each agent: 102.74186583724692
2013-05-01 00:46:14,219  INFO ScoreStats:188 -- avg. score of the worst plan of each agent: 102.74186583724692
2013-05-01 00:46:14,219  INFO ScoreStats:189 -- avg. of the avg. plan score per agent: 102.74186583724692
2013-05-01 00:46:14,219  INFO ScoreStats:190 -- avg. score of the best plan of each agent: 102.74186583724692
2013-05-01 00:46:14,483  INFO ControlerListenerManager:187 calling notifyIterationEnds on org.matsim.core.controler.corelisteners.LegHistogramListener
2013-05-01 00:46:14,512  INFO LegHistogramListener:77 number of legs:	4	100%
2013-05-01 00:46:14,512  INFO LegHistogramListener:84 number of car legs:	4	100.0%
2013-05-01 00:46:14,512  INFO LegHistogramListener:86 (car legs include legs by pt vehicles)
2013-05-01 00:46:15,237  INFO ControlerListenerManager:191 [it.1] all ControlerIterationEndsListeners called.
2013-05-01 00:46:15,242  INFO AbstractController:182 ### ITERATION 1 ENDS
2013-05-01 00:46:15,242  INFO AbstractController:183 ###################################################
2013-05-01 00:46:15,243  INFO ControlerListenerManager:139 calling notifyShutdown on org.matsim.core.controler.corelisteners.EventsHandling
2013-05-01 00:46:15,244  INFO ControlerListenerManager:139 calling notifyShutdown on org.matsim.core.controler.corelisteners.DumpDataAtEnd
2013-05-01 00:46:15,248  INFO Counter:51 [PopulationWriter] dumped person # 1
2013-05-01 00:46:15,248  INFO Counter:51 [PopulationWriter] dumped person # 2
2013-05-01 00:46:15,249  INFO Counter:57 [PopulationWriter] dumped person # 2
2013-05-01 00:46:15,250  INFO PopulationWriter:173 Population written to: ./output/run0.output_plans.xml.gz
2013-05-01 00:46:15,252  INFO NetworkWriter:47 Writing network to file: ./output/run0.output_network.xml.gz...
2013-05-01 00:46:15,610  INFO NetworkWriter:50 done.
2013-05-01 00:46:15,641  INFO Counter:51 [FacilitiesWriter] dumped facility # 1
2013-05-01 00:46:15,642  INFO Counter:51 [FacilitiesWriter] dumped facility # 2
2013-05-01 00:46:15,642  INFO Counter:57 [FacilitiesWriter] dumped facility # 2
2013-05-01 00:46:15,644  INFO ControlerListenerManager:144 calling notifyShutdown on org.matsim.analysis.TravelDistanceStats
2013-05-01 00:46:15,644  INFO ControlerListenerManager:144 calling notifyShutdown on org.matsim.analysis.ScoreStats
2013-05-01 00:46:15,645  INFO ControlerListenerManager:148 all ControlerShutdownListeners called.
